# generated using pymatgen
data_Si3N4
_symmetry_space_group_name_H-M   'P 1'
_cell_length_a   7.60454444
_cell_length_b   7.60454444
_cell_length_c   2.90519908
_cell_angle_alpha   90.00000000
_cell_angle_beta   90.00000000
_cell_angle_gamma   120.00000000
_symmetry_Int_Tables_number   1
_chemical_formula_structural   Si3N4
_chemical_formula_sum   'Si6 N8'
_cell_volume   145.49662976
_cell_formula_units_Z   2
loop_
 _symmetry_equiv_pos_site_id
 _symmetry_equiv_pos_as_xyz
  1  'x, y, z'
loop_
 _atom_type_symbol
 _atom_type_oxidation_number
  Si4+  4.0
  N3-  -3.0
loop_
 _atom_site_type_symbol
 _atom_site_label
 _atom_site_symmetry_multiplicity
 _atom_site_fract_x
 _atom_site_fract_y
 _atom_site_fract_z
 _atom_site_occupancy
  Si4+  Si0  1  0.23108243  0.82494615  0.75000000  1
  Si4+  Si1  1  0.40613628  0.23108243  0.25000000  1
  Si4+  Si2  1  0.82494615  0.59386372  0.25000000  1
  Si4+  Si3  1  0.17505385  0.40613628  0.75000000  1
  Si4+  Si4  1  0.59386372  0.76891757  0.75000000  1
  Si4+  Si5  1  0.76891757  0.17505385  0.25000000  1
  N3-  N6  1  0.33333333  0.66666667  0.75000000  1
  N3-  N7  1  0.66666667  0.33333333  0.25000000  1
  N3-  N8  1  0.96919449  0.66985340  0.75000000  1
  N3-  N9  1  0.29934109  0.96919449  0.25000000  1
  N3-  N10  1  0.66985340  0.70065891  0.25000000  1
  N3-  N11  1  0.33014660  0.29934109  0.75000000  1
  N3-  N12  1  0.03080551  0.33014660  0.25000000  1
  N3-  N13  1  0.70065891  0.03080551  0.75000000  1
